/*--------------------------------*- C++ -*----------------------------------*\
  =========                 |
  \\      /  F ield         | OpenFOAM: The Open Source CFD Toolbox
   \\    /   O peration     | Website:  https://openfoam.org
    \\  /    A nd           | Version:  12
     \\/     M anipulation  |
\*---------------------------------------------------------------------------*/
FoamFile
{
    format      ascii;
    class       extendedFeatureEdgeMesh;
    location    "constant/extendedFeatureEdgeMesh";
    object      helice3.extendedFeatureEdgeMesh;
}
// * * * * * * * * * * * * * * * * * * * * * * * * * * * * * * * * * * * * * //

// points

3197
(
(-0.187408 -0.011745 0.1114)
(-0.002771 -0.011745 -0.218)
(0.190179 -0.011745 0.1066)
(-0.013136 -0.010379 0.013248)
(-0.013169 -0.009498 0.013191)
(-0.004905 -0.010379 -0.018)
(-0.004839 -0.009498 -0.018)
(0.018041 -0.010379 0.004752)
(0.018008 -0.009498 0.004809)
(-0.01309 -0.009996 0.013328)
(-0.013111 -0.010257 0.013291)
(-0.018072 -0.009767 0.004698)
(0.018087 -0.009996 0.004672)
(0.018066 -0.010257 0.004709)
(0.013105 -0.009767 0.013302)
(-0.004997 -0.009996 -0.018)
(-0.004955 -0.010257 -0.018)
(0.004968 -0.009767 -0.018)
(-0.018005 -0.010521 0.004815)
(-0.017708 -0.00894 0.005329)
(0.004832 -0.010521 -0.018)
(0.004238 -0.00894 -0.018)
(0.013172 -0.010521 0.013185)
(0.013469 -0.00894 0.012671)
(0.014978 -0.03 0.000812)
(0.015 -0.03 -0)
(0.014912 -0.03 0.001622)
(0.015 0 -0)
(0.014977 -0 0.000834)
(0.014802 -0.03 0.002427)
(0.014907 -0 0.001665)
(0.014649 -0.03 0.003225)
(0.014792 -0 0.002491)
(0.014453 -0.03 0.004013)
(0.014631 -0 0.003309)
(0.014215 -0.03 0.00479)
(0.014424 -0 0.004117)
(0.013935 -0.03 0.005552)
(0.014173 -0 0.004912)
(0.013614 -0.03 0.006298)
(0.013878 -0 0.005692)
(0.013253 -0.03 0.007026)
(0.01354 -0 0.006455)
(0.012853 -0.03 0.007733)
(0.013161 -0 0.007197)
(0.012415 -0.03 0.008418)
(0.011941 -0.03 0.009078)
(0.01274 -0 0.007917)
(0.012281 -0 0.008613)
(0.011432 -0.03 0.009711)
(0.011783 -0 0.009282)
(0.01089 -0.03 0.010315)
(0.011249 -0 0.009923)
(0.010316 -0.03 0.01089)
(0.01068 -0 0.010533)
(0.009711 -0.03 0.011432)
(0.010078 -0 0.01111)
(0.009078 -0.03 0.011941)
(0.009445 -0 0.011653)
(0.008418 -0.03 0.012415)
(0.008783 -0 0.01216)
(0.007733 -0.03 0.012853)
(0.007026 -0.03 0.013253)
(0.008094 -0 0.012629)
(0.007379 -0 0.013059)
(0.006298 -0.03 0.013614)
(0.006642 -0 0.013449)
(0.005552 -0.03 0.013935)
(0.005884 -0 0.013798)
(0.00479 -0.03 0.014215)
(0.005109 -0 0.014103)
(0.004013 -0.03 0.014453)
(0.004317 -0 0.014365)
(0.003225 -0.03 0.014649)
(0.003512 -0 0.014583)
(0.002427 -0.03 0.014802)
(0.002696 -0 0.014756)
(0.001622 -0.03 0.014912)
(0.001872 -0 0.014883)
(0.000812 -0.03 0.014978)
(0.001042 -0 0.014964)
(0 -0.03 0.015)
(0.000209 -0 0.014999)
(-0.000831 -0.03 0.014977)
(-0.000625 -0 0.014987)
(-0.00166 -0.03 0.014908)
(-0.001457 -0 0.014929)
(-0.002285 -0 0.014825)
(-0.002483 -0.03 0.014793)
(-0.003105 -0 0.014675)
(-0.003299 -0.03 0.014633)
(-0.003916 -0 0.01448)
(-0.004105 -0.03 0.014427)
(-0.004715 -0 0.01424)
(-0.004898 -0.03 0.014178)
(-0.005499 -0 0.013956)
(-0.005676 -0.03 0.013885)
(-0.006266 -0 0.013629)
(-0.006437 -0.03 0.013549)
(-0.007013 -0 0.013259)
(-0.007178 -0.03 0.013171)
(-0.007896 -0.03 0.012753)
(-0.007739 -0 0.012849)
(-0.008591 -0.03 0.012296)
(-0.009259 -0.03 0.011801)
(-0.008442 -0 0.012399)
(-0.009899 -0.03 0.01127)
(-0.009118 -0 0.011911)
(-0.010508 -0.03 0.010704)
(-0.009765 -0 0.011386)
(-0.011085 -0.03 0.010105)
(-0.010383 -0 0.010825)
(-0.011628 -0.03 0.009476)
(-0.010969 -0 0.010232)
(-0.012135 -0.03 0.008817)
(-0.01152 -0 0.009606)
(-0.012605 -0.03 0.008131)
(-0.012036 -0 0.008951)
(-0.013036 -0.03 0.00742)
(-0.012515 -0 0.008268)
(-0.013427 -0.03 0.006686)
(-0.012955 -0 0.00756)
(-0.013777 -0.03 0.005932)
(-0.013356 -0 0.006828)
(-0.014085 -0.03 0.005159)
(-0.013714 -0 0.006076)
(-0.014349 -0.03 0.004371)
(-0.014031 -0 0.005304)
(-0.014569 -0.03 0.003569)
(-0.014304 -0 0.004516)
(-0.014745 -0.03 0.002756)
(-0.014533 -0 0.003714)
(-0.014875 -0.03 0.001935)
(-0.014717 -0 0.002901)
(-0.014959 -0.03 0.001108)
(-0.014855 -0 0.002078)
(-0.014997 -0.03 0.000277)
(-0.014948 -0 0.00125)
(-0.01499 -0.03 -0.000554)
(-0.014994 -0 0.000417)
(-0.014994 0 -0.000417)
(-0.014948 0 -0.00125)
(-0.014936 -0.03 -0.001384)
(-0.014855 0 -0.002078)
(-0.014836 -0.03 -0.00221)
(-0.014717 0 -0.002901)
(-0.014691 -0.03 -0.003028)
(-0.014533 0 -0.003714)
(-0.014501 -0.03 -0.003838)
(-0.014304 0 -0.004516)
(-0.014266 -0.03 -0.004635)
(-0.014031 0 -0.005304)
(-0.013987 -0.03 -0.005419)
(-0.013714 0 -0.006076)
(-0.013665 -0.03 -0.006185)
(-0.013356 0 -0.006828)
(-0.013302 -0.03 -0.006933)
(-0.012955 0 -0.00756)
(-0.012897 -0.03 -0.007659)
(-0.012515 0 -0.008268)
(-0.012453 -0.03 -0.008362)
(-0.012036 0 -0.008951)
(-0.01197 -0.03 -0.00904)
(-0.01152 0 -0.009606)
(-0.011451 -0.03 -0.009689)
(-0.010969 0 -0.010232)
(-0.010897 -0.03 -0.010309)
(-0.010383 0 -0.010825)
(-0.010309 -0.03 -0.010897)
(-0.009765 0 -0.011386)
(-0.009689 -0.03 -0.011451)
(-0.009118 0 -0.011911)
(-0.00904 -0.03 -0.01197)
(-0.008442 0 -0.012399)
(-0.008362 -0.03 -0.012453)
(-0.007739 0 -0.012849)
(-0.007659 -0.03 -0.012897)
(-0.006933 -0.03 -0.013302)
(-0.006185 -0.03 -0.013665)
(-0.007013 0 -0.013259)
(-0.005419 -0.03 -0.013987)
(-0.006266 0 -0.013629)
(-0.004635 -0.03 -0.014266)
(-0.005499 0 -0.013956)
(-0.003838 -0.03 -0.014501)
(-0.004715 0 -0.01424)
(-0.003028 -0.03 -0.014691)
(-0.003916 0 -0.01448)
(-0.00221 -0.03 -0.014836)
(-0.003105 0 -0.014675)
(-0.001384 -0.03 -0.014936)
(-0.002285 0 -0.014825)
(-0.000554 -0.03 -0.01499)
(-0.001457 0 -0.014929)
(0.000277 -0.03 -0.014997)
(-0.000625 0 -0.014987)
(0.001108 -0.03 -0.014959)
(0.000209 0 -0.014999)
(0.001935 -0.03 -0.014875)
(0.001042 0 -0.014964)
(0.002756 -0.03 -0.014745)
(0.001872 0 -0.014883)
(0.003569 -0.03 -0.014569)
(0.002696 0 -0.014756)
(0.004371 -0.03 -0.014349)
(0.003512 0 -0.014583)
(0.005159 -0.03 -0.014085)
(0.004317 0 -0.014365)
(0.005932 -0.03 -0.013777)
(0.005109 0 -0.014103)
(0.006686 -0.03 -0.013427)
(0.005884 0 -0.013798)
(0.00742 -0.03 -0.013036)
(0.006642 0 -0.013449)
(0.008131 -0.03 -0.012605)
(0.007379 0 -0.013059)
(0.008094 0 -0.012629)
(0.008817 -0.03 -0.012135)
(0.008783 0 -0.01216)
(0.009476 -0.03 -0.011628)
(0.009445 0 -0.011653)
(0.010105 -0.03 -0.011085)
(0.010078 0 -0.01111)
(0.010704 -0.03 -0.010508)
(0.01068 0 -0.010533)
(0.01127 -0.03 -0.009899)
(0.011249 0 -0.009923)
(0.011801 -0.03 -0.009259)
(0.011783 0 -0.009282)
(0.012296 -0.03 -0.008591)
(0.012281 0 -0.008613)
(0.012753 -0.03 -0.007896)
(0.01274 0 -0.007917)
(0.013171 -0.03 -0.007178)
(0.013161 0 -0.007197)
(0.013549 -0.03 -0.006437)
(0.01354 0 -0.006455)
(0.013885 -0.03 -0.005676)
(0.013878 0 -0.005692)
(0.014173 0 -0.004912)
(0.014178 -0.03 -0.004898)
(0.014424 0 -0.004117)
(0.014427 -0.03 -0.004105)
(0.014631 0 -0.003309)
(0.014633 -0.03 -0.003299)
(0.014792 0 -0.002491)
(0.014793 -0.03 -0.002483)
(0.014907 0 -0.001665)
(0.014908 -0.03 -0.00166)
(0.014977 0 -0.000834)
(0.014977 -0.03 -0.000831)
(-0.014307 -0.012122 0.01122)
(-0.01451 -0.012208 0.010868)
(-0.01673 -0.012161 0.007022)
(-0.016859 -0.012103 0.006798)
(-0.014716 -0.012277 0.010511)
(-0.016394 -0.01228 0.007605)
(-0.0166 -0.012213 0.007248)
(-0.014924 -0.01233 0.010151)
(-0.015134 -0.012367 0.009788)
(-0.015344 -0.01239 0.009423)
(-0.015555 -0.012397 0.009058)
(-0.015766 -0.01239 0.008693)
(-0.015976 -0.012369 0.008329)
(-0.016186 -0.012332 0.007966)
(-0.01687 -0.007872 0.00678)
(-0.016667 -0.007786 0.007132)
(-0.014447 -0.007833 0.010978)
(-0.014318 -0.007892 0.011201)
(-0.016461 -0.007717 0.007489)
(-0.014783 -0.007714 0.010395)
(-0.014577 -0.007782 0.010752)
(-0.016253 -0.007664 0.007849)
(-0.016043 -0.007627 0.008212)
(-0.015833 -0.007605 0.008577)
(-0.015622 -0.007597 0.008942)
(-0.015411 -0.007604 0.009307)
(-0.015201 -0.007626 0.009672)
(-0.014991 -0.007662 0.010034)
(-0.001097 0 -0.001023)
(-0.001038 0 -0.001083)
(-0.000977 0 -0.001139)
(-0.001152 0 -0.000961)
(-0.000912 0 -0.001191)
(-0.001204 0 -0.000895)
(-0.000844 0 -0.00124)
(-0.001252 0 -0.000827)
(-0.000774 0 -0.001285)
(-0.001296 0 -0.000756)
(-0.000701 0 -0.001326)
(-0.001336 0 -0.000683)
(-0.000627 0 -0.001363)
(-0.001371 0 -0.000608)
(-0.00055 0 -0.001396)
(-0.001403 0 -0.00053)
(-0.000471 0 -0.001424)
(-0.00143 0 -0.000452)
(-0.000392 0 -0.001448)
(-0.001453 0 -0.000371)
(-0.000311 0 -0.001468)
(-0.001472 0 -0.00029)
(-0.000228 0 -0.001482)
(-0.001486 0 -0.000208)
(-0.000146 0 -0.001493)
(-0.001495 0 -0.000125)
(-6.3e-05 0 -0.001499)
(-0.001499 0 -4.2e-05)
(2.1e-05 0 -0.0015)
(-0.001499 -0 4.2e-05)
(0.000104 0 -0.001496)
(-0.001495 -0 0.000125)
(0.000187 0 -0.001488)
(-0.001486 -0 0.000208)
(0.00027 0 -0.001476)
(-0.001472 -0 0.00029)
(0.000351 0 -0.001458)
(-0.001453 -0 0.000371)
(0.000432 0 -0.001437)
(-0.00143 -0 0.000452)
(0.000511 0 -0.00141)
(-0.001403 -0 0.00053)
(0.000588 0 -0.00138)
(-0.001371 -0 0.000608)
(0.000664 0 -0.001345)
(-0.001336 -0 0.000683)
(0.000738 0 -0.001306)
(-0.001296 -0 0.000756)
(0.000809 0 -0.001263)
(-0.001252 -0 0.000827)
(0.000878 0 -0.001216)
(-0.001204 -0 0.000895)
(0.000945 0 -0.001165)
(-0.001152 -0 0.000961)
(0.001008 0 -0.001111)
(-0.001097 -0 0.001023)
(-0.001038 -0 0.001083)
(0.001068 0 -0.001053)
(0.001125 0 -0.000992)
(0.001178 0 -0.000928)
(-0.000977 -0 0.001139)
(-0.000912 -0 0.001191)
(0.001228 0 -0.000861)
(0.001274 0 -0.000792)
(-0.000774 -0 0.001285)
(-0.000844 -0 0.00124)
(0.001316 0 -0.00072)
(-0.000701 -0 0.001326)
(0.001354 0 -0.000645)
(-0.000627 -0 0.001363)
(0.001388 0 -0.000569)
(-0.000471 -0 0.001424)
(-0.00055 -0 0.001396)
(0.001417 0 -0.000491)
(-0.000392 -0 0.001448)
(0.001442 0 -0.000412)
(0.001463 0 -0.000331)
(-0.000311 -0 0.001468)
(0.001479 0 -0.000249)
(-0.000228 -0 0.001482)
(0.001491 0 -0.000166)
(-0.000146 -0 0.001493)
(0.001498 0 -8.3e-05)
(2.1e-05 -0 0.0015)
(-6.3e-05 -0 0.001499)
(0.0015 0 -0)
(0.001498 -0 8.3e-05)
(0.000187 -0 0.001488)
(0.000104 -0 0.001496)
(0.001491 -0 0.000166)
(0.00027 -0 0.001476)
(0.001479 -0 0.000249)
(0.000351 -0 0.001458)
(0.001463 -0 0.000331)
(0.001442 -0 0.000412)
(0.001417 -0 0.000491)
(0.000432 -0 0.001437)
(0.000511 -0 0.00141)
(0.001388 -0 0.000569)
(0.000588 -0 0.00138)
(0.001354 -0 0.000645)
(0.001316 -0 0.00072)
(0.000664 -0 0.001345)
(0.000738 -0 0.001306)
(0.001274 -0 0.000792)
(0.000809 -0 0.001263)
(0.001228 -0 0.000861)
(0.000878 -0 0.001216)
(0.001178 -0 0.000928)
(0.001125 -0 0.000992)
(0.000945 -0 0.001165)
(0.001068 -0 0.001053)
(0.001008 -0 0.001111)
(0.01687 -0.012122 0.00678)
(0.016667 -0.012207 0.007132)
(0.014447 -0.012161 0.010978)
(0.014317 -0.012103 0.011202)
(0.016461 -0.012277 0.007489)
(0.014783 -0.01228 0.010395)
(0.014577 -0.012213 0.010752)
(0.016253 -0.01233 0.007849)
(0.016043 -0.012367 0.008212)
(0.015833 -0.01239 0.008577)
(0.015622 -0.012397 0.008942)
(0.015411 -0.01239 0.009307)
(0.015201 -0.012369 0.009671)
(0.014991 -0.012332 0.010034)
(0.014306 -0.007872 0.01122)
(0.01451 -0.007786 0.010868)
(0.01673 -0.007833 0.007022)
(0.016859 -0.007892 0.006799)
(0.014716 -0.007717 0.010511)
(0.016394 -0.007714 0.007605)
(0.0166 -0.007782 0.007248)
(0.014924 -0.007664 0.010151)
(0.015134 -0.007627 0.009788)
(0.015344 -0.007605 0.009423)
(0.015555 -0.007597 0.009058)
(0.015766 -0.007604 0.008693)
(0.015976 -0.007626 0.008328)
(0.016186 -0.007662 0.007965)
(-0.002563 -0.012121 -0.018)
(-0.002157 -0.012207 -0.018)
(0.002284 -0.012161 -0.018)
(0.002542 -0.012103 -0.018)
(-0.001745 -0.012277 -0.018)
(0.00161 -0.01228 -0.018)
(0.002023 -0.012213 -0.018)
(-0.001329 -0.01233 -0.018)
(-0.00091 -0.012367 -0.018)
(-0.000489 -0.01239 -0.018)
(-6.7e-05 -0.012397 -0.018)
(0.000354 -0.01239 -0.018)
(0.000775 -0.012369 -0.018)
(0.001194 -0.012332 -0.018)
(0.002564 -0.007872 -0.018)
(0.002157 -0.007786 -0.018)
(-0.002284 -0.007833 -0.018)
(-0.002542 -0.007892 -0.018)
(0.001745 -0.007717 -0.018)
(-0.001611 -0.007714 -0.018)
(-0.002023 -0.007782 -0.018)
(0.001329 -0.007664 -0.018)
(0.00091 -0.007627 -0.018)
(0.000489 -0.007605 -0.018)
(6.7e-05 -0.007597 -0.018)
(-0.000355 -0.007604 -0.018)
(-0.000775 -0.007626 -0.018)
(-0.001195 -0.007662 -0.018)
(-0.01411 -0.012019 0.01156)
(-0.013924 -0.011903 0.011883)
(-0.013767 -0.011786 0.012155)
(-0.013634 -0.011672 0.012384)
(-0.013511 -0.01155 0.012598)
(-0.013409 -0.011434 0.012776)
(-0.013323 -0.011324 0.012923)
(-0.013253 -0.011223 0.013046)
(-0.013068 -0.010881 0.013365)
(-0.013105 -0.010962 0.013301)
(-0.013038 -0.010807 0.013418)
(-0.013013 -0.01074 0.013461)
(-0.01299 -0.010672 0.013501)
(-0.01297 -0.010604 0.013536)
(-0.012951 -0.010535 0.013568)
(-0.012937 -0.010473 0.013593)
(-0.012926 -0.010416 0.013612)
(-0.012916 -0.010359 0.013629)
(-0.012907 -0.010303 0.013644)
(-0.012901 -0.010245 0.013655)
(-0.012895 -0.010188 0.013664)
(-0.012892 -0.010131 0.013671)
(-0.01289 -0.01008 0.013674)
(-0.012889 -0.010029 0.013675)
(-0.013194 -0.011128 0.013147)
(-0.013145 -0.011042 0.013231)
(-0.01325 -0.00882 0.01305)
(-0.013203 -0.008897 0.013132)
(-0.0133 -0.008746 0.012963)
(-0.013354 -0.008672 0.012871)
(-0.01341 -0.008601 0.012773)
(-0.013469 -0.008531 0.012671)
(-0.013531 -0.008464 0.012564)
(-0.013617 -0.008377 0.012415)
(-0.01372 -0.008283 0.012236)
(-0.013828 -0.008195 0.012049)
(-0.013942 -0.008111 0.011852)
(-0.01406 -0.008034 0.011648)
(-0.014187 -0.00796 0.011428)
(-0.01289 -0.009972 0.013675)
(-0.012892 -0.009914 0.013671)
(-0.012896 -0.009856 0.013664)
(-0.012901 -0.009798 0.013655)
(-0.012908 -0.009741 0.013643)
(-0.012916 -0.009683 0.013629)
(-0.012926 -0.009626 0.013611)
(-0.012938 -0.009569 0.013591)
(-0.012951 -0.009512 0.013569)
(-0.012965 -0.009456 0.013543)
(-0.012981 -0.0094 0.013516)
(-0.012999 -0.009344 0.013485)
(-0.013018 -0.009289 0.013452)
(-0.013039 -0.009234 0.013416)
(-0.013061 -0.009179 0.013378)
(-0.013084 -0.009125 0.013337)
(-0.013109 -0.009071 0.013294)
(-0.013136 -0.009018 0.013248)
(-0.013164 -0.008966 0.0132)
(-0.01328 -0.009233 0.012999)
(-0.013255 -0.009283 0.013042)
(-0.013237 -0.009321 0.013073)
(-0.01331 -0.009177 0.012947)
(-0.01322 -0.009359 0.013102)
(-0.013342 -0.009122 0.012891)
(-0.013205 -0.009398 0.013129)
(-0.01319 -0.009436 0.013154)
(-0.013376 -0.009068 0.012831)
(-0.013176 -0.009475 0.013178)
(-0.013413 -0.009014 0.012768)
(-0.013164 -0.009515 0.0132)
(-0.013152 -0.009554 0.01322)
(-0.013451 -0.008962 0.012702)
(-0.013141 -0.009594 0.013239)
(-0.013131 -0.009634 0.013256)
(-0.013505 -0.008893 0.012608)
(-0.013123 -0.009673 0.013271)
(-0.013115 -0.009714 0.013284)
(-0.01357 -0.008818 0.012495)
(-0.013108 -0.009754 0.013296)
(-0.013103 -0.009794 0.013305)
(-0.01364 -0.008746 0.012375)
(-0.013098 -0.009834 0.013314)
(-0.013094 -0.009875 0.01332)
(-0.013092 -0.009915 0.013324)
(-0.013713 -0.008676 0.012248)
(-0.01309 -0.009956 0.013327)
(-0.01379 -0.008609 0.012114)
(-0.013871 -0.008545 0.011974)
(-0.013985 -0.008465 0.011777)
(-0.013119 -0.010301 0.013278)
(-0.013128 -0.010344 0.013262)
(-0.01412 -0.008381 0.011544)
(-0.013139 -0.010392 0.013242)
(-0.013153 -0.010445 0.013218)
(-0.014261 -0.008304 0.011299)
(-0.01317 -0.010498 0.01319)
(-0.013187 -0.010551 0.013159)
(-0.01321 -0.010609 0.01312)
(-0.014409 -0.008236 0.011042)
(-0.013237 -0.010672 0.013074)
(-0.013266 -0.010735 0.013022)
(-0.014563 -0.008175 0.010777)
(-0.013302 -0.010804 0.01296)
(-0.014721 -0.008124 0.010503)
(-0.013346 -0.010879 0.012884)
(-0.013399 -0.010961 0.012792)
(-0.014938 -0.008068 0.010126)
(-0.013463 -0.011049 0.01268)
(-0.013542 -0.011144 0.012545)
(-0.015189 -0.008025 0.009692)
(-0.013636 -0.011246 0.012381)
(-0.015444 -0.008003 0.009251)
(-0.013751 -0.011352 0.012183)
(-0.013888 -0.011463 0.011945)
(-0.0157 -0.008002 0.008806)
(-0.014053 -0.011576 0.01166)
(-0.015956 -0.008022 0.008364)
(-0.014249 -0.011687 0.011319)
(-0.016207 -0.008063 0.007929)
(-0.014459 -0.011782 0.010957)
(-0.016452 -0.008124 0.007504)
(-0.014678 -0.011861 0.010577)
(-0.016688 -0.008205 0.007096)
(-0.014906 -0.011923 0.010182)
(-0.017067 -0.007974 0.006439)
(-0.016912 -0.008304 0.006707)
(-0.01514 -0.011967 0.009776)
(-0.017253 -0.008091 0.006117)
(-0.017102 -0.008409 0.006378)
(-0.01741 -0.008208 0.005844)
(-0.017262 -0.008516 0.006101)
(-0.015379 -0.011993 0.009363)
(-0.017543 -0.008322 0.005615)
(-0.017397 -0.00862 0.005868)
(-0.015619 -0.012 0.008946)
(-0.017509 -0.00872 0.005674)
(-0.017666 -0.008444 0.005401)
(-0.01586 -0.011989 0.00853)
(-0.017602 -0.008816 0.005512)
(-0.017769 -0.00856 0.005223)
(-0.01768 -0.008905 0.005377)
(-0.016097 -0.011959 0.008119)
(-0.017854 -0.008669 0.005076)
(-0.017752 -0.008998 0.005253)
(-0.017925 -0.008771 0.004953)
(-0.01633 -0.011911 0.007715)
(-0.017811 -0.009085 0.005151)
(-0.017983 -0.008865 0.004852)
(-0.017859 -0.009164 0.005067)
(-0.018032 -0.008952 0.004767)
(-0.017899 -0.009237 0.004998)
(-0.016556 -0.011846 0.007323)
(-0.018073 -0.009032 0.004698)
(-0.017932 -0.009303 0.004941)
(-0.017959 -0.009364 0.004894)
(-0.01811 -0.009112 0.004633)
(-0.017981 -0.009419 0.004856)
(-0.01814 -0.009186 0.004581)
(-0.018001 -0.009475 0.004821)
(-0.018019 -0.009531 0.00479)
(-0.018165 -0.009253 0.004537)
(-0.01675 -0.011773 0.006988)
(-0.018188 -0.009321 0.004498)
(-0.018034 -0.009582 0.004764)
(-0.018045 -0.009628 0.004744)
(-0.018208 -0.00939 0.004462)
(-0.01689 -0.01171 0.006746)
(-0.018056 -0.009674 0.004726)
(-0.018227 -0.009459 0.004431)
(-0.016956 -0.012054 0.006631)
(-0.018241 -0.009521 0.004406)
(-0.018252 -0.009577 0.004386)
(-0.018065 -0.009721 0.004711)
(-0.01705 -0.012001 0.006468)
(-0.017024 -0.01164 0.006514)
(-0.018262 -0.009634 0.004369)
(-0.018079 -0.009814 0.004687)
(-0.018271 -0.009691 0.004355)
(-0.017152 -0.011563 0.006291)
(-0.017171 -0.011927 0.00626)
(-0.018083 -0.009856 0.004679)
(-0.018277 -0.009748 0.004343)
(-0.018086 -0.009894 0.004674)
(-0.018282 -0.009805 0.004334)
(-0.017286 -0.011847 0.006059)
(-0.017274 -0.01148 0.00608)
(-0.018088 -0.009932 0.00467)
(-0.018286 -0.009863 0.004327)
(-0.018089 -0.00997 0.004668)
(-0.018288 -0.00992 0.004324)
(-0.01809 -0.010008 0.004668)
(-0.018289 -0.009978 0.004323)
(-0.017377 -0.011401 0.005902)
(-0.017397 -0.011762 0.005868)
(-0.018089 -0.010046 0.004669)
(-0.018288 -0.010035 0.004324)
(-0.018088 -0.010084 0.004671)
(-0.018285 -0.010093 0.004329)
(-0.017502 -0.011672 0.005685)
(-0.01745 -0.011339 0.005776)
(-0.018085 -0.010122 0.004675)
(-0.018282 -0.01015 0.004336)
(-0.018276 -0.010208 0.004345)
(-0.018082 -0.01016 0.004681)
(-0.017602 -0.011577 0.005512)
(-0.01752 -0.011274 0.005655)
(-0.017586 -0.011207 0.00554)
(-0.018269 -0.010265 0.004358)
(-0.018078 -0.010198 0.004688)
(-0.018073 -0.010236 0.004697)
(-0.01826 -0.010322 0.004373)
(-0.017686 -0.011489 0.005367)
(-0.017648 -0.011137 0.005432)
(-0.018067 -0.010274 0.004707)
(-0.01825 -0.010379 0.00439)
(-0.01806 -0.010311 0.004719)
(-0.018238 -0.010435 0.004411)
(-0.017746 -0.01142 0.005264)
(-0.017707 -0.011066 0.00533)
(-0.018225 -0.010492 0.004434)
(-0.018052 -0.010349 0.004733)
(-0.017803 -0.01135 0.005165)
(-0.017756 -0.011001 0.005245)
(-0.018043 -0.010386 0.004748)
(-0.01821 -0.010548 0.004459)
(-0.018034 -0.010424 0.004764)
(-0.018194 -0.010604 0.004487)
(-0.018024 -0.010461 0.004782)
(-0.017857 -0.011278 0.005071)
(-0.017791 -0.010951 0.005185)
(-0.018176 -0.010659 0.004518)
(-0.018012 -0.010498 0.004802)
(-0.017908 -0.011204 0.004983)
(-0.017824 -0.0109 0.005128)
(-0.018 -0.010534 0.004823)
(-0.018157 -0.010714 0.004551)
(-0.017987 -0.010571 0.004846)
(-0.018136 -0.010769 0.004587)
(-0.017855 -0.010849 0.005074)
(-0.017956 -0.011129 0.004899)
(-0.017973 -0.010607 0.00487)
(-0.018114 -0.010823 0.004626)
(-0.018001 -0.011052 0.004821)
(-0.017884 -0.010797 0.005024)
(-0.017912 -0.010744 0.004976)
(-0.017958 -0.010643 0.004895)
(-0.01809 -0.010877 0.004667)
(-0.018039 -0.010983 0.004756)
(-0.017937 -0.010691 0.004932)
(-0.018065 -0.01093 0.00471)
(0.0015 -0.005 -0)
(0.001498 -0.005 8.3e-05)
(0.001491 -0.005 0.000166)
(0.001479 -0.005 0.000249)
(0.001463 -0.005 0.000331)
(0.001442 -0.005 0.000412)
(0.001417 -0.005 0.000491)
(0.001388 -0.005 0.000569)
(0.001354 -0.005 0.000645)
(0.001316 -0.005 0.00072)
(0.001274 -0.005 0.000792)
(0.001228 -0.005 0.000861)
(0.001178 -0.005 0.000928)
(0.001125 -0.005 0.000992)
(0.001068 -0.005 0.001053)
(0.001008 -0.005 0.001111)
(0.000945 -0.005 0.001165)
(0.000878 -0.005 0.001216)
(0.000809 -0.005 0.001263)
(0.000738 -0.005 0.001306)
(0.000664 -0.005 0.001345)
(0.000588 -0.005 0.00138)
(0.000511 -0.005 0.00141)
(0.000432 -0.005 0.001437)
(0.000351 -0.005 0.001458)
(0.00027 -0.005 0.001476)
(0.000187 -0.005 0.001488)
(0.000104 -0.005 0.001496)
(2.1e-05 -0.005 0.0015)
(-6.3e-05 -0.005 0.001499)
(-0.000146 -0.005 0.001493)
(-0.000228 -0.005 0.001482)
(-0.000311 -0.005 0.001468)
(-0.000392 -0.005 0.001448)
(-0.000471 -0.005 0.001424)
(-0.00055 -0.005 0.001396)
(-0.000627 -0.005 0.001363)
(-0.000701 -0.005 0.001326)
(-0.000774 -0.005 0.001285)
(-0.000844 -0.005 0.00124)
(-0.000912 -0.005 0.001191)
(-0.000977 -0.005 0.001139)
(-0.001038 -0.005 0.001083)
(-0.001097 -0.005 0.001023)
(-0.001152 -0.005 0.000961)
(-0.001204 -0.005 0.000895)
(-0.001252 -0.005 0.000827)
(-0.001296 -0.005 0.000756)
(-0.001336 -0.005 0.000683)
(-0.001371 -0.005 0.000608)
(-0.001403 -0.005 0.00053)
(-0.00143 -0.005 0.000452)
(-0.001453 -0.005 0.000371)
(-0.001472 -0.005 0.00029)
(-0.001486 -0.005 0.000208)
(-0.001495 -0.005 0.000125)
(-0.001499 -0.005 4.2e-05)
(-0.001499 -0.005 -4.2e-05)
(-0.001495 -0.005 -0.000125)
(-0.001486 -0.005 -0.000208)
(-0.001472 -0.005 -0.00029)
(-0.001453 -0.005 -0.000371)
(-0.00143 -0.005 -0.000452)
(-0.001403 -0.005 -0.00053)
(-0.001371 -0.005 -0.000608)
(-0.001336 -0.005 -0.000683)
(-0.001296 -0.005 -0.000756)
(-0.001252 -0.005 -0.000827)
(-0.001204 -0.005 -0.000895)
(-0.001152 -0.005 -0.000961)
(-0.001097 -0.005 -0.001023)
(-0.001038 -0.005 -0.001083)
(-0.000977 -0.005 -0.001139)
(-0.000912 -0.005 -0.001191)
(-0.000844 -0.005 -0.00124)
(-0.000774 -0.005 -0.001285)
(-0.000701 -0.005 -0.001326)
(-0.000627 -0.005 -0.001363)
(-0.00055 -0.005 -0.001396)
(-0.000471 -0.005 -0.001424)
(-0.000392 -0.005 -0.001448)
(-0.000311 -0.005 -0.001468)
(-0.000228 -0.005 -0.001483)
(-0.000146 -0.005 -0.001493)
(-6.3e-05 -0.005 -0.001499)
(2.1e-05 -0.005 -0.0015)
(0.000104 -0.005 -0.001496)
(0.000187 -0.005 -0.001488)
(0.00027 -0.005 -0.001476)
(0.000351 -0.005 -0.001458)
(0.000432 -0.005 -0.001437)
(0.000511 -0.005 -0.00141)
(0.000588 -0.005 -0.00138)
(0.000664 -0.005 -0.001345)
(0.000738 -0.005 -0.001306)
(0.000809 -0.005 -0.001263)
(0.000878 -0.005 -0.001216)
(0.000945 -0.005 -0.001165)
(0.001008 -0.005 -0.001111)
(0.001068 -0.005 -0.001053)
(0.001125 -0.005 -0.000992)
(0.001178 -0.005 -0.000928)
(0.001228 -0.005 -0.000861)
(0.001274 -0.005 -0.000792)
(0.001316 -0.005 -0.00072)
(0.001354 -0.005 -0.000645)
(0.001388 -0.005 -0.000569)
(0.001417 -0.005 -0.000491)
(0.001442 -0.005 -0.000412)
(0.001463 -0.005 -0.000331)
(0.001479 -0.005 -0.000249)
(0.001491 -0.005 -0.000166)
(0.001498 -0.005 -8.3e-05)
(0.017067 -0.012019 0.006439)
(0.017253 -0.011902 0.006117)
(0.01741 -0.011786 0.005845)
(0.017543 -0.011672 0.005615)
(0.017666 -0.01155 0.005402)
(0.017768 -0.011433 0.005224)
(0.017854 -0.011324 0.005077)
(0.017924 -0.011223 0.004954)
(0.018109 -0.010881 0.004635)
(0.018072 -0.010962 0.004699)
(0.018139 -0.010807 0.004582)
(0.018164 -0.01074 0.004539)
(0.018187 -0.010672 0.004499)
(0.018207 -0.010604 0.004464)
(0.018226 -0.010535 0.004432)
(0.01824 -0.010473 0.004407)
(0.018251 -0.010416 0.004388)
(0.018261 -0.010359 0.004371)
(0.018269 -0.010302 0.004356)
(0.018276 -0.010245 0.004345)
(0.018282 -0.010188 0.004336)
(0.018285 -0.010131 0.004329)
(0.018287 -0.01008 0.004326)
(0.018288 -0.010029 0.004324)
(0.017983 -0.011128 0.004853)
(0.018031 -0.011041 0.004769)
(0.017927 -0.00882 0.00495)
(0.017974 -0.008897 0.004868)
(0.017877 -0.008746 0.005037)
(0.017823 -0.008672 0.005129)
(0.017767 -0.008601 0.005227)
(0.017708 -0.008531 0.005329)
(0.017646 -0.008464 0.005436)
(0.01756 -0.008377 0.005586)
(0.017457 -0.008283 0.005764)
(0.017349 -0.008195 0.005951)
(0.017235 -0.008111 0.006148)
(0.017117 -0.008034 0.006352)
(0.01699 -0.00796 0.006572)
(0.018287 -0.009972 0.004326)
(0.018285 -0.009914 0.004329)
(0.018281 -0.009856 0.004336)
(0.018276 -0.009798 0.004345)
(0.018269 -0.009741 0.004357)
(0.018261 -0.009683 0.004371)
(0.018251 -0.009626 0.004389)
(0.018239 -0.009569 0.004409)
(0.018226 -0.009512 0.004431)
(0.018212 -0.009456 0.004456)
(0.018196 -0.0094 0.004484)
(0.018178 -0.009344 0.004515)
(0.018159 -0.009289 0.004548)
(0.018138 -0.009234 0.004584)
(0.018116 -0.009179 0.004622)
(0.018093 -0.009125 0.004663)
(0.018068 -0.009071 0.004706)
(0.018041 -0.009018 0.004752)
(0.018013 -0.008966 0.0048)
(0.017897 -0.009233 0.005001)
(0.017922 -0.009283 0.004958)
(0.01794 -0.009321 0.004927)
(0.017867 -0.009177 0.005053)
(0.017957 -0.009359 0.004898)
(0.017835 -0.009122 0.005109)
(0.017972 -0.009398 0.004871)
(0.017987 -0.009436 0.004846)
(0.017801 -0.009068 0.005168)
(0.018001 -0.009475 0.004822)
(0.017764 -0.009014 0.005231)
(0.018013 -0.009515 0.0048)
(0.018025 -0.009554 0.00478)
(0.017726 -0.008962 0.005298)
(0.018036 -0.009594 0.004761)
(0.018045 -0.009634 0.004744)
(0.017672 -0.008893 0.005392)
(0.018054 -0.009673 0.004729)
(0.018062 -0.009713 0.004716)
(0.017607 -0.008818 0.005505)
(0.018069 -0.009754 0.004704)
(0.018074 -0.009794 0.004695)
(0.017537 -0.008746 0.005625)
(0.018079 -0.009834 0.004687)
(0.018082 -0.009875 0.00468)
(0.018085 -0.009915 0.004676)
(0.017464 -0.008676 0.005752)
(0.018087 -0.009956 0.004673)
(0.017387 -0.008609 0.005886)
(0.017306 -0.008545 0.006026)
(0.017192 -0.008465 0.006223)
(0.018058 -0.010301 0.004722)
(0.018049 -0.010344 0.004738)
(0.017057 -0.008381 0.006456)
(0.018038 -0.010392 0.004758)
(0.018024 -0.010445 0.004782)
(0.016916 -0.008304 0.006701)
(0.018007 -0.010498 0.00481)
(0.017989 -0.010551 0.004841)
(0.017967 -0.010609 0.00488)
(0.016768 -0.008236 0.006958)
(0.01794 -0.010672 0.004926)
(0.017911 -0.010735 0.004978)
(0.016614 -0.008175 0.007223)
(0.017875 -0.010804 0.00504)
(0.016456 -0.008124 0.007497)
(0.017831 -0.010879 0.005116)
(0.017778 -0.010961 0.005208)
(0.016239 -0.008068 0.007874)
(0.017713 -0.011049 0.00532)
(0.017635 -0.011144 0.005455)
(0.015988 -0.008025 0.008308)
(0.017541 -0.011246 0.005619)
(0.015733 -0.008003 0.008749)
(0.017426 -0.011352 0.005817)
(0.017289 -0.011463 0.006055)
(0.015477 -0.008002 0.009194)
(0.017124 -0.011575 0.00634)
(0.015221 -0.008022 0.009636)
(0.016927 -0.011687 0.006681)
(0.01497 -0.008063 0.010071)
(0.016718 -0.011782 0.007043)
(0.014725 -0.008124 0.010496)
(0.016499 -0.011861 0.007423)
(0.014489 -0.008205 0.010904)
(0.016271 -0.011923 0.007818)
(0.01411 -0.007975 0.011561)
(0.014265 -0.008304 0.011293)
(0.016036 -0.011967 0.008224)
(0.013924 -0.008091 0.011884)
(0.014075 -0.008409 0.011622)
(0.013766 -0.008208 0.012156)
(0.013915 -0.008516 0.011899)
(0.015798 -0.011993 0.008637)
(0.013634 -0.008322 0.012385)
(0.01378 -0.00862 0.012132)
(0.015557 -0.012 0.009054)
(0.013668 -0.00872 0.012326)
(0.013511 -0.008444 0.012599)
(0.015317 -0.011989 0.00947)
(0.013575 -0.008816 0.012488)
(0.013408 -0.00856 0.012777)
(0.013497 -0.008905 0.012623)
(0.01508 -0.011959 0.009881)
(0.013323 -0.008669 0.012924)
(0.013425 -0.008998 0.012747)
(0.013252 -0.008771 0.013047)
(0.014847 -0.011911 0.010285)
(0.013366 -0.009085 0.012849)
(0.013193 -0.008865 0.013148)
(0.013318 -0.009164 0.012933)
(0.013145 -0.008952 0.013233)
(0.013278 -0.009237 0.013002)
(0.01462 -0.011846 0.010676)
(0.013105 -0.009032 0.013302)
(0.013245 -0.009303 0.013059)
(0.013218 -0.009364 0.013106)
(0.013067 -0.009112 0.013366)
(0.013196 -0.009419 0.013144)
(0.013037 -0.009186 0.013419)
(0.013176 -0.009475 0.013179)
(0.013158 -0.009531 0.01321)
(0.013012 -0.009253 0.013463)
(0.014427 -0.011773 0.011012)
(0.012989 -0.009321 0.013502)
(0.013143 -0.009582 0.013236)
(0.013131 -0.009628 0.013256)
(0.012969 -0.00939 0.013538)
(0.014287 -0.01171 0.011254)
(0.013121 -0.009674 0.013274)
(0.01295 -0.009459 0.013569)
(0.014221 -0.012054 0.011369)
(0.012936 -0.009521 0.013594)
(0.012925 -0.009577 0.013614)
(0.013112 -0.009721 0.013289)
(0.014127 -0.012001 0.011532)
(0.014153 -0.01164 0.011486)
(0.012915 -0.009634 0.013631)
(0.013098 -0.009814 0.013313)
(0.012906 -0.009691 0.013645)
(0.014025 -0.011563 0.011709)
(0.014006 -0.011927 0.01174)
(0.013094 -0.009856 0.013321)
(0.0129 -0.009748 0.013657)
(0.013091 -0.009894 0.013326)
(0.012894 -0.009805 0.013666)
(0.013891 -0.011847 0.01194)
(0.013903 -0.01148 0.01192)
(0.013089 -0.009932 0.01333)
(0.012891 -0.009863 0.013673)
(0.013087 -0.00997 0.013332)
(0.012889 -0.00992 0.013676)
(0.013087 -0.010008 0.013332)
(0.012888 -0.009978 0.013677)
(0.0138 -0.011401 0.012098)
(0.01378 -0.011762 0.012132)
(0.013088 -0.010046 0.013331)
(0.012889 -0.010035 0.013676)
(0.013089 -0.010084 0.013329)
(0.012891 -0.010093 0.013671)
(0.013675 -0.011672 0.012315)
(0.013727 -0.011339 0.012224)
(0.013092 -0.010122 0.013325)
(0.012896 -0.01015 0.013664)
(0.012901 -0.010208 0.013655)
(0.013095 -0.01016 0.013319)
(0.013575 -0.011577 0.012488)
(0.013657 -0.011274 0.012345)
(0.013591 -0.011207 0.01246)
(0.012908 -0.010265 0.013642)
(0.013099 -0.010198 0.013312)
(0.013104 -0.010236 0.013303)
(0.012917 -0.010322 0.013627)
(0.013491 -0.011489 0.012633)
(0.013528 -0.011137 0.012568)
(0.01311 -0.010274 0.013293)
(0.012927 -0.010379 0.01361)
(0.013117 -0.010311 0.013281)
(0.012939 -0.010435 0.013589)
(0.013431 -0.01142 0.012736)
(0.01347 -0.011066 0.01267)
(0.012952 -0.010492 0.013566)
(0.013125 -0.010349 0.013267)
(0.013374 -0.01135 0.012835)
(0.013421 -0.011001 0.012755)
(0.013133 -0.010386 0.013252)
(0.012967 -0.010548 0.013541)
(0.013143 -0.010424 0.013236)
(0.012983 -0.010604 0.013513)
(0.013153 -0.010461 0.013218)
(0.01332 -0.011278 0.012929)
(0.013386 -0.010951 0.012815)
(0.013001 -0.010659 0.013482)
(0.013165 -0.010498 0.013198)
(0.013269 -0.011204 0.013017)
(0.013353 -0.0109 0.012872)
(0.013177 -0.010534 0.013177)
(0.01302 -0.010714 0.013449)
(0.01319 -0.010571 0.013154)
(0.013041 -0.010769 0.013413)