/*--------------------------------*- C++ -*----------------------------------*\
  =========                 |
  \\      /  F ield         | OpenFOAM: The Open Source CFD Toolbox
   \\    /   O peration     | Website:  https://openfoam.org
    \\  /    A nd           | Version:  9
     \\/     M anipulation  |
\*---------------------------------------------------------------------------*/
FoamFile
{
    format      binary;
    class       polyBoundaryMesh;
    location    "constant/polyMesh";
    object      boundary;
}
// * * * * * * * * * * * * * * * * * * * * * * * * * * * * * * * * * * * * * //

4
(
    inlet
    {
        type            patch;
        nFaces          5000;
        startFace       737500;
    }
    outlet
    {
        type            patch;
        nFaces          5000;
        startFace       742500;
    }
    ground
    {
        type            wall;
        inGroups        List<word> 1(wall);
        nFaces          2500;
        startFace       747500;
    }
    openSides
    {
        type            pressureInletOutletVelocity;
        nFaces          12500;
        startFace       750000;
    }
)

// ************************************************************************* //
