/*--------------------------------*- C++ -*----------------------------------*\
  =========                 |
  \\      /  F ield         | OpenFOAM: The Open Source CFD Toolbox
   \\    /   O peration     | Website:  https://openfoam.org
    \\  /    A nd           | Version:  9
     \\/     M anipulation  |
\*---------------------------------------------------------------------------*/
FoamFile
{
    format      binary;
    class       polyBoundaryMesh;
    location    "constant/polyMesh";
    object      boundary;
}
// * * * * * * * * * * * * * * * * * * * * * * * * * * * * * * * * * * * * * //

2
(
    innerCylinder
    {
        type            wall;
        inGroups        List<word> 1(wall);
        nFaces          105758;
        startFace       1750849;
    }
    outerCylinder
    {
        type            wall;
        inGroups        List<word> 1(wall);
        nFaces          63940;
        startFace       1856607;
    }
)

// ************************************************************************* //
