/*--------------------------------*- C++ -*----------------------------------*\
| =========                 |                                                 |
| \\      /  F ield         | OpenFOAM: The Open Source CFD Toolbox           |
|  \\    /   O peration     | Version:  9                                     |
|   \\  /    A nd           | Web:      www.OpenFOAM.org                      |
|    \\/     M anipulation  |                                                 |
\*---------------------------------------------------------------------------*/
FoamFile
{
    version     2.0;
    format      ascii;
    class       pointVectorField;
    location    "0";
    object      pointDisplacement;
}
// * * * * * * * * * * * * * * * * * * * * * * * * * * * * * * * * * * * * * //

dimensions      [0 1 0 0 0 0 0];

internalField   uniform (0 0 0);

boundaryField
{
    AMI1
    {
        type            cyclicAMI;
        value           uniform (0 0 0);
    }

    AMI2
    {
        type            cyclicAMI;
        value           uniform (0 0 0);
    }

    inlet
    {
        type            fixedValue;
        value           uniform (0 0 0);
    }

    outlet
    {
        type            fixedValue;
        value           uniform (0 0 0);
    }

    helice3 
    {
        type            calculated;
        value           uniform (0 0 0);
    }

    staticWall
    {
        type            fixedValue;
        value           uniform (0 0 0);
    }

    staticMovingWall
    {
        type            calculated;
        value           uniform (0 0 0);
    }
}


// ************************************************************************* //