/*--------------------------------*- C++ -*----------------------------------*\
| =========                 |                                                 |
| \\      /  F ield         | OpenFOAM: The Open Source CFD Toolbox           |
|  \\    /   O peration     | Version:  v12                                   |
|   \\  /    A nd           | Web:      www.openfoam.com                      |
|    \\/     M anipulation  |                                                 |
\*---------------------------------------------------------------------------*/

FoamFile
{
    version     2.0;            // Versão do arquivo OpenFOAM
    format      ascii;          // Formato do arquivo: ascii ou binary
    class       volVectorField; // Tipo do campo: escalar volumétrico
    location    "0.org";            // Localização relativa ao diretório
    object      U;              // Nome do campo (deve coincidir com o arquivo)
}


dimensions      [0 1 -1 0 0 0 0]; // Unidade de velocidade: m/s
internalField   uniform (0 0 0);  // Campo inicial de velocidade (uniforme)
boundaryField
{
    inlet
    {
        type fixedValue;          // Velocidade fixa na entrada
        value uniform (10 0 0);   // Fluxo de entrada a 10 m/s no eixo x
    }
    outlet
    {
        type zeroGradient;        // Gradiente zero na saída
    }
    walls
    {
        type noSlip;              // Velocidade zero nas paredes (condição de não deslizamento)
    }
    rotorPatch
    {
        type movingWallVelocity;  // Parede em movimento no rotor
        value uniform (0 0 0);    // Velocidade será ajustada dinamicamente
    }
}