/*--------------------------------*- C++ -*----------------------------------*\
| =========                 |                                                 |
| \\      /  F ield         | OpenFOAM: The Open Source CFD Toolbox           |
|  \\    /   O peration     | Version:  v12                                   |
|   \\  /    A nd           | Web:      www.openfoam.com                      |
|    \\/     M anipulation  |                                                 |
\*---------------------------------------------------------------------------*/

FoamFile
{
    version     2.0;            // Versão do arquivo OpenFOAM
    format      ascii;          // Formato do arquivo: ascii ou binary
    class       volVectorField; // Tipo do campo: escalar volumétrico
    location    "0.org";            // Localização relativa ao diretório
    object      nut;              // Nome do campo (deve coincidir com o arquivo)
}

dimensions      [0 2 -1 0 0 0 0]; // Unidade: m²/s
internalField   uniform 1e-5;     // Valor inicial de viscosidade
boundaryField
{
    inlet
    {
        type calculated;          // Calculado a partir das condições de entrada
        value uniform 0;
    }
    outlet
    {
        type zeroGradient;        // Gradiente zero
    }
    walls
    {
        type nutkWallFunction;    // Função de parede para turbulência
        value uniform 0;
    }
    rotorPatch
    {
        type nutkWallFunction;    // Função de parede no rotor
        value uniform 0;
    }
}
