/*--------------------------------*- C++ -*----------------------------------*\
| =========                 |                                                 |
| \\      /  F ield         | OpenFOAM: The Open Source CFD Toolbox           |
|  \\    /   O peration     | Version:  v12                                   |
|   \\  /    A nd           | Web:      www.openfoam.com                      |
|    \\/     M anipulation  |                                                 |
\*---------------------------------------------------------------------------*/

/*--------------------------------*- C++ -*----------------------------------*\
| =========                 |                                                 |
| \\      /  F ield         | OpenFOAM: The Open Source CFD Toolbox           |
|  \\    /   O peration     | Version:  v12                                   |
|   \\  /    A nd           | Web:      www.openfoam.com                      |
|    \\/     M anipulation  |                                                 |
\*---------------------------------------------------------------------------*/

FoamFile
{
    version     2.0;               // Versão do arquivo OpenFOAM
    format      ascii;            // Formato do arquivo: ascii ou binary
    class       volVectorField;  // Tipo do campo: escalar volumétrico
    location    "0.org";         // Localização relativa ao diretório
    object      k;               // Nome do campo (deve coincidir com o arquivo)
}

dimensions      [0 2 -2 0 0 0 0]; // Unidade: m²/s²
internalField   uniform 0.1;      // Valor inicial de energia cinética
boundaryField
{
    inlet
    {
        type fixedValue;          // Valor fixo na entrada
        value uniform 0.1;
    }
    outlet
    {
        type zeroGradient;        // Gradiente zero
    }
    walls
    {
        type kqRWallFunction;     // Função de parede para \( k \)
        value uniform 0.0;
    }
    rotorPatch
    {
        type kqRWallFunction;     // Função de parede no rotor
        value uniform 0.0;
    }
}